Ident  = #Delft3D-FLOW 3.59.01.48550#
Commnt =                  
Runtxt = #Discharges + OB#
         #desde abril hasta#
         #noviembre#
Filcco = #Media.grd#
Anglat =  4.1000000e+001
Grdang =  0.0000000e+000
Filgrd = #Media.enc#
MNKmax = 122 95 35
Thick  =  2.8571429e+000
          2.8571429e+000
          2.8571429e+000
          2.8571429e+000
          2.8571429e+000
          2.8571429e+000
          2.8571429e+000
          2.8571429e+000
          2.8571429e+000
          2.8571429e+000
          2.8571429e+000
          2.8571429e+000
          2.8571429e+000
          2.8571429e+000
          2.8571429e+000
          2.8571429e+000
          2.8571429e+000
          2.8571429e+000
          2.8571429e+000
          2.8571429e+000
          2.8571429e+000
          2.8571429e+000
          2.8571429e+000
          2.8571429e+000
          2.8571429e+000
          2.8571429e+000
          2.8571429e+000
          2.8571429e+000
          2.8571429e+000
          2.8571429e+000
          2.8571429e+000
          2.8571429e+000
          2.8571429e+000
          2.8571429e+000
          2.8571429e+000
Commnt =                  
Fildep = #MEdia.dep#
Commnt =                  
Commnt =                 no. dry points: 37
Fildry = #mediares.dry#
Commnt =                 no. thin dams: 0
Commnt =                  
Itdate = #2012-01-02#
Tunit  = #M#
Tstart = 0
Tstop  = 4320
Dt     = 5
Tzone  = 0
Commnt =                  
Sub1   = #STW #
Sub2   = #   #
Commnt =                  
Wnsvwp = #N#
Filwnd = #wind_2012-01-02000000_2012-01-05000000.wnd#
Wndint = #Y#
Commnt =                  
Zeta0  = 0
S0     =  3.0000000e-002
          3.0000000e-002
          3.0000000e-002
          3.0000000e-002
          3.0000000e-002
          3.0000000e-002
          3.0000000e-002
          3.0000000e-002
          3.0000000e-002
          3.0000000e-002
          3.0000000e-002
          3.0000000e-002
          3.0000000e-002
          3.0000000e-002
          3.0000000e-002
          3.0000000e-002
          3.0000000e-002
          3.0000000e-002
          3.0000000e-002
          3.0000000e-002
          3.0000000e-002
          3.0000000e-002
          3.0000000e-002
          3.0000000e-002
          3.0000000e-002
          3.0000000e-002
          3.0000000e-002
          3.0000000e-002
          3.0000000e-002
          3.0000000e-002
          3.0000000e-002
          3.0000000e-002
          3.0000000e-002
          3.0000000e-002
          3.0000000e-002
T0     =  1.0200000e+001
          1.0200000e+001
          1.0200000e+001
          1.0200000e+001
          1.0200000e+001
          1.0200000e+001
          1.0200000e+001
          1.0200000e+001
          1.0200000e+001
          1.0200000e+001
          1.0200000e+001
          1.0200000e+001
          1.0200000e+001
          1.0200000e+001
          1.0200000e+001
          1.0200000e+001
          1.0200000e+001
          1.0200000e+001
          1.0200000e+001
          1.0200000e+001
          1.0200000e+001
          1.0200000e+001
          1.0200000e+001
          1.0200000e+001
          1.0200000e+001
          1.0200000e+001
          1.0200000e+001
          1.0200000e+001
          1.0200000e+001
          1.0200000e+001
          1.0200000e+001
          1.0200000e+001
          1.0200000e+001
          1.0200000e+001
          1.0200000e+001
Commnt =                  
Commnt =                 no. open boundaries: 1
Filbnd = #Presa.bnd#
FilbcT = #Presa.bct#
FilbcC = #Presa.bcc#
Rettis =  0.0000000e+000
Rettib =  0.0000000e+000
Commnt =                  
Ag     =  9.8100000e+000
Rhow   =  1.0000000e+003
Tempw  =  1.5000000e+001
Salw   =  3.1000000e+001
Wstres =  6.3000000e-004  0.0000000e+000  7.2300000e-003  1.0000000e+002  7.2300000e-003  1.0000000e+002
Rhoa   =  1.0000000e+000
Betac  =  5.0000000e-001
Equili = #N#
Tkemod = #K-epsilon   #
Ktemp  = 5
Fclou  =  0.0000000e+000
Sarea  =  0.0000000e+000
Secchi =  2.1100000e+000
Stantn =  1.3000000e-003
Dalton =  1.3000000e-003
Filtmp = #rad_2012-01-02000000_2012-01-05000000.tem#
Solrad = #Y#
Temint = #Y#
Commnt =                  
Roumet = #M#
Ccofu  =  5.0000000e-002
Ccofv  =  5.0000000e-002
Xlo    =  0.0000000e+000
Vicouv =  5.0000000e-001
Dicouv =  5.0000000e-001
Htur2d = #N#
Vicoww =  5.0000000e-006
Dicoww =  5.0000000e-006
Irov   = 2
Commnt =                  
Iter   =      2
Dryflp = #YES#
Dpsopt = #DP#
Dpuopt = #MIN#
Dryflc =  1.0000000e-001
Dco    = -9.9900000e+002
Tlfsmo =  6.0000000e+001
ThetQH =  0.0000000e+000
Forfuv = #Y#
Forfww = #Y#
Sigcor = #N#
Trasol = #Cyclic-method#
Momsol = #Cyclic#
Commnt =                  
Commnt =                 no. discharges: 5
Filsrc = #Entradas-Salidas.src#
Fildis = #tributaries.dis#
Commnt =                 no. observation points: 4
Filsta = #media.obs#
Commnt =                 no. drogues: 0
Commnt =                  
Commnt =                  
Commnt =                 no. cross sections: 0
Commnt =                  
SMhydr = #YYYYY#     
SMderv = #YYYYYY#    
SMproc = #YYYYYYYYYY#
PMhydr = #YYYYYY#    
PMderv = #YYY#       
PMproc = #YYYYYYYYYY#
SHhydr = #YYYY#      
SHderv = #YYYYY#     
SHproc = #YYYYYYYYYY#
SHflux = #YYYY#      
PHhydr = #YYYYYY#    
PHderv = #YYY#       
PHproc = #YYYYYYYYYY#
PHflux = #YYYY#      
Prmap  =  0.0000000e+000
          1.4400000e+003
          2.8800000e+003
Prhis  =  0.0000000e+000 360  2.8800000e+003
Flmap  =  0.0000000e+000 360  2.8800000e+003
Flhis  =  0.0000000e+000 360  2.8800000e+003
Flpp   =  0.0000000e+000 0  2.8800000e+003
Flrst  = 1440
Commnt =                  
Online = #N#
Flwq   =  0.0000000e+000 360  3.0672000e+005
WaqAgg = #active only#
IlAggr = 1 1 1 1 1 1 1 1 1 1 1 1 1 1 1 1 1 1 1 1 1 1 1 1 1 1 1 1 1 1 1 1 1 1 1
Zmodel = #Y#
Zbot   = -35.0
Ztop   = 3.2
Maseva = #Y#
FlNcdf = #map#
Commnt =                  
